<edges>
    <!-- Roads between nodes -->
    <edge id="e0" from="n0" to="n1" priority="1"/>
    <edge id="e1" from="n1" to="n2" priority="1"/>
    <edge id="e2" from="n1" to="n3" priority="1"/>
    <edge id="e3" from="n3" to="n4" priority="1"/>
    <edge id="e4" from="n2" to="n4" priority="1"/>
    
    <!-- Edges leading to charging stations -->
    <edge id="cs1" from="n1" to="charging_station_1" priority="1"/>
    <edge id="cs2" from="n4" to="charging_station_2" priority="1"/>
</edges>
