<nodes>
    <!-- Intersections -->
    <node id="n0" x="0.0" y="0.0" type="priority"/>
    <node id="n1" x="500.0" y="0.0" type="priority"/>
    <node id="n2" x="1000.0" y="0.0" type="priority"/>
    <node id="n3" x="500.0" y="500.0" type="priority"/>
    <node id="n4" x="1000.0" y="500.0" type="priority"/>
    
    <!-- Charging Station Locations (added for reference) -->
    <node id="charging_station_1" x="250.0" y="0.0" type="priority"/>
    <node id="charging_station_2" x="750.0" y="500.0" type="priority"/>
</nodes>
