<?xml version="1.0" encoding="UTF-8"?>

<!-- generated on 2024-09-24 15:19:30 by Eclipse SUMO sumo Version 1.20.0
-->

<configuration xmlns:xsi="http://www.w3.org/2001/XMLSchema-instance" xsi:noNamespaceSchemaLocation="http://sumo.dlr.de/xsd/sumoConfiguration.xsd">

    <input>
        <net-file value="D:/PBL-2_FInal/map.net.xml"/>
        <additional-files value="map.add.xml"/>
    </input>

</configuration>
