<?xml version="1.0" encoding="UTF-8"?>

<!-- generated on 2024-09-24 15:19:30 by Eclipse SUMO netedit Version 1.20.0
<configuration xmlns:xsi="http://www.w3.org/2001/XMLSchema-instance" xsi:noNamespaceSchemaLocation="http://sumo.dlr.de/xsd/neteditConfiguration.xsd">

    <input>
        <sumocfg-file value="d:\PBL-2_FInal\map.sumocfg"/>
        <sumo-net-file value="D:\PBL-2_FInal\map.net.xml"/>
    </input>

    <output>
        <output-file value="D:\PBL-2_FInal\map.net.xml"/>
    </output>

    <processing>
        <geometry.min-radius.fix.railways value="false"/>
        <geometry.max-grade.fix value="false"/>
        <offset.disable-normalization value="true"/>
        <lefthand value="0"/>
    </processing>

    <junctions>
        <no-turnarounds value="true"/>
        <junctions.corner-detail value="5"/>
        <junctions.limit-turn-speed value="5.50"/>
        <rectangular-lane-cut value="0"/>
    </junctions>

    <pedestrian>
        <walkingareas value="0"/>
    </pedestrian>

</configuration>
-->

<net version="1.20" junctionCornerDetail="5" limitTurnSpeed="5.50" xmlns:xsi="http://www.w3.org/2001/XMLSchema-instance" xsi:noNamespaceSchemaLocation="http://sumo.dlr.de/xsd/net_file.xsd">

    <location netOffset="-363020.74,-2047160.91" convBoundary="0.00,0.00,8154.41,3789.62" origBoundary="73.702183,18.510692,73.779446,18.545012" projParameter="+proj=utm +zone=43 +ellps=WGS84 +datum=WGS84 +units=m +no_defs"/>

    <type id="highway.path" priority="1" numLanes="1" speed="5.56" allow="pedestrian bicycle" oneway="0" width="2.00"/>
    <type id="highway.pedestrian" priority="1" numLanes="1" speed="2.78" allow="pedestrian" oneway="1" width="2.00"/>
    <type id="highway.residential" priority="3" numLanes="1" speed="13.89" disallow="tram rail_urban rail rail_electric rail_fast ship container cable_car subway aircraft wheelchair scooter drone" oneway="0"/>
    <type id="highway.service" priority="1" numLanes="1" speed="5.56" allow="pedestrian delivery bicycle" oneway="0"/>
    <type id="highway.steps" priority="1" numLanes="1" speed="1.39" allow="pedestrian" oneway="1" width="2.00"/>
    <type id="highway.track" priority="1" numLanes="1" speed="5.56" allow="pedestrian motorcycle moped bicycle" oneway="0"/>
    <type id="highway.unclassified" priority="4" numLanes="1" speed="13.89" disallow="tram rail_urban rail rail_electric rail_fast ship container cable_car subway aircraft wheelchair scooter drone" oneway="0"/>

    <edge id=":10069992510_0" function="internal">
        <lane id=":10069992510_0_0" index="0" allow="pedestrian delivery bicycle" speed="5.07" length="5.04" shape="2669.39,2979.41 2668.69,2978.24 2667.78,2977.56 2666.64,2977.39 2665.29,2977.73"/>
    </edge>
    <edge id=":10069992510_1" function="internal">
        <lane id=":10069992510_1_0" index="0" allow="pedestrian delivery bicycle" speed="5.56" length="9.41" shape="2669.39,2979.41 2665.80,2970.72"/>
    </edge>
    <edge id=":10069992510_2" function="internal">
        <lane id=":10069992510_2_0" index="0" allow="pedestrian delivery bicycle" speed="3.65" length="4.67" shape="2669.39,2979.41 2669.67,2978.00 2670.26,2977.32 2671.15,2977.39 2672.35,2978.20"/>
    </edge>
    <edge id=":10069992510_3" function="internal">
        <lane id=":10069992510_3_0" index="0" allow="pedestrian delivery bicycle" speed="5.56" length="9.42" shape="2668.75,2969.49 2672.35,2978.20"/>
    </edge>
    <edge id=":10069992510_4" function="internal">
        <lane id=":10069992510_4_0" index="0" allow="pedestrian delivery bicycle" speed="5.56" length="10.22" shape="2668.75,2969.49 2669.45,2972.21 2669.10,2974.49 2667.72,2976.33 2665.29,2977.73"/>
    </edge>
    <edge id=":10069992510_5" function="internal">
        <lane id=":10069992510_5_0" index="0" allow="pedestrian delivery bicycle" speed="3.65" length="4.67" shape="2668.75,2969.49 2668.47,2970.91 2667.89,2971.58 2666.99,2971.52 2665.80,2970.72"/>
    </edge>
    <edge id=":10069992510_6" function="internal">
        <lane id=":10069992510_6_0" index="0" allow="pedestrian delivery bicycle" speed="5.03" length="5.01" shape="2664.10,2974.76 2665.29,2974.07 2665.97,2973.17 2666.14,2972.05 2665.80,2970.72"/>
    </edge>
    <edge id=":10069992510_7" function="internal">
        <lane id=":10069992510_7_0" index="0" allow="pedestrian delivery bicycle" speed="5.56" length="10.17" shape="2664.10,2974.76 2666.81,2974.09 2669.09,2974.44 2670.94,2975.81 2672.35,2978.20"/>
    </edge>
    <edge id=":10069992510_8" function="internal">
        <lane id=":10069992510_8_0" index="0" allow="pedestrian delivery bicycle" speed="3.65" length="4.67" shape="2664.10,2974.76 2665.51,2975.06 2666.18,2975.65 2666.10,2976.54 2665.29,2977.73"/>
    </edge>
    <edge id=":10069992511_0" function="internal">
        <lane id=":10069992511_0_0" index="0" allow="pedestrian delivery bicycle" speed="5.26" length="5.27" shape="2537.83,3027.97 2537.08,3026.65 2536.14,3025.84 2535.01,3025.54 2533.69,3025.77"/>
    </edge>
    <edge id=":10069992511_1" function="internal">
        <lane id=":10069992511_1_0" index="0" allow="pedestrian delivery bicycle" speed="5.56" length="10.50" shape="2537.83,3027.97 2537.12,3025.16 2537.51,3022.84 2539.01,3021.04 2541.60,3019.73"/>
    </edge>
    <edge id=":10069992511_2" function="internal">
        <lane id=":10069992511_2_0" index="0" allow="pedestrian delivery bicycle" speed="3.65" length="4.67" shape="2537.83,3027.97 2538.11,3026.56 2538.70,3025.88 2539.59,3025.95 2540.79,3026.76"/>
    </edge>
    <edge id=":10069992511_3" function="internal">
        <lane id=":10069992511_3_0" index="0" allow="pedestrian delivery bicycle" speed="4.97" length="5.08" shape="2542.62,3022.77 2541.36,3023.40 2540.64,3024.27 2540.45,3025.39 2540.79,3026.76"/>
    </edge>
    <edge id=":10069992511_4" function="internal">
        <lane id=":10069992511_4_0" index="0" allow="pedestrian delivery bicycle" speed="5.56" length="9.42" shape="2542.62,3022.77 2533.69,3025.77"/>
    </edge>
    <edge id=":10069992511_5" function="internal">
        <lane id=":10069992511_5_0" index="0" allow="pedestrian delivery bicycle" speed="3.65" length="4.67" shape="2542.62,3022.77 2541.22,3022.39 2540.59,3021.76 2540.72,3020.87 2541.60,3019.73"/>
    </edge>
    <edge id=":10069992511_6" function="internal">
        <lane id=":10069992511_6_0" index="0" allow="pedestrian delivery bicycle" speed="5.56" length="9.43" shape="2532.66,3022.73 2541.60,3019.73"/>
    </edge>
    <edge id=":10069992511_7" function="internal">
        <lane id=":10069992511_7_0" index="0" allow="pedestrian delivery bicycle" speed="5.56" length="10.20" shape="2532.66,3022.73 2535.30,3022.27 2537.54,3022.78 2539.37,3024.28 2540.79,3026.76"/>
    </edge>
    <edge id=":10069992511_8" function="internal">
        <lane id=":10069992511_8_0" index="0" allow="pedestrian delivery bicycle" speed="3.65" length="4.67" shape="2532.66,3022.73 2534.06,3023.11 2534.69,3023.74 2534.57,3024.62 2533.69,3025.77"/>
    </edge>
    <edge id=":10070009917_0" function="internal">
        <lane id=":10070009917_0_0" index="0" allow="pedestrian delivery bicycle" speed="5.56" length="10.44" shape="2691.65,3041.68 2682.31,3046.34"/>
    </edge>
    <edge id=":10070009917_1" function="internal">
        <lane id=":10070009917_1_0" index="0" allow="pedestrian delivery bicycle" speed="5.56" length="11.18" shape="2691.65,3041.68 2689.52,3042.32 2687.08,3042.11 2684.34,3041.07 2681.29,3039.19"/>
    </edge>
    <edge id=":10070009917_2" function="internal">
        <lane id=":10070009917_2_0" index="0" allow="pedestrian delivery bicycle" speed="3.65" length="4.67" shape="2691.65,3041.68 2690.22,3041.54 2689.49,3041.02 2689.46,3040.13 2690.15,3038.86"/>
    </edge>
    <edge id=":10070009917_3" function="internal">
        <lane id=":10070009917_3_0" index="0" allow="pedestrian delivery bicycle" speed="5.56" length="7.65" shape="2683.16,3036.59 2685.39,3038.02 2687.30,3038.88 2688.88,3039.16 2690.15,3038.86"/>
    </edge>
    <edge id=":10070009917_4" function="internal">
        <lane id=":10070009917_4_0" index="0" allow="pedestrian delivery bicycle" speed="5.56" length="13.19" shape="2683.16,3036.59 2686.02,3039.30 2686.84,3041.82 2685.60,3044.17 2682.31,3046.34"/>
    </edge>
    <edge id=":10070009917_5" function="internal">
        <lane id=":10070009917_5_0" index="0" allow="pedestrian delivery bicycle" speed="3.65" length="4.67" shape="2683.16,3036.59 2683.67,3037.94 2683.52,3038.83 2682.73,3039.24 2681.29,3039.19"/>
    </edge>
    <edge id=":10070009917_6" function="internal">
        <lane id=":10070009917_6_0" index="0" allow="pedestrian delivery bicycle" speed="4.69" length="5.77" shape="2680.92,3043.46 2682.36,3042.51 2682.90,3041.48 2682.55,3040.38 2681.29,3039.19"/>
    </edge>
    <edge id=":10070009917_7" function="internal">
        <lane id=":10070009917_7_0" index="0" allow="pedestrian delivery bicycle" speed="5.56" length="10.31" shape="2680.92,3043.46 2690.15,3038.86"/>
    </edge>
    <edge id=":10070009917_8" function="internal">
        <lane id=":10070009917_8_0" index="0" allow="pedestrian delivery bicycle" speed="3.65" length="4.67" shape="2680.92,3043.46 2682.35,3043.66 2683.06,3044.21 2683.04,3045.10 2682.31,3046.34"/>
    </edge>
    <edge id=":10070009919_0" function="internal">
        <lane id=":10070009919_0_0" index="0" allow="pedestrian delivery bicycle" speed="5.56" length="9.88" shape="2634.11,3057.10 2631.40,3058.23 2629.53,3058.96 2627.63,3059.61 2624.83,3060.49"/>
    </edge>
    <edge id=":10070009919_1" function="internal">
        <lane id=":10070009919_1_0" index="0" allow="pedestrian delivery bicycle" speed="5.56" length="10.43" shape="2634.11,3057.10 2631.42,3057.79 2629.12,3057.41 2627.22,3055.96 2625.70,3053.45"/>
    </edge>
    <edge id=":10070009919_2" function="internal">
        <lane id=":10070009919_2_0" index="0" allow="pedestrian delivery bicycle" speed="3.65" length="4.67" shape="2634.11,3057.10 2632.69,3056.83 2632.01,3056.25 2632.07,3055.36 2632.86,3054.15"/>
    </edge>
    <edge id=":10070009919_3" function="internal">
        <lane id=":10070009919_3_0" index="0" allow="pedestrian delivery bicycle" speed="5.18" length="5.30" shape="2628.64,3052.17 2629.42,3053.49 2630.38,3054.26 2631.53,3054.48 2632.86,3054.15"/>
    </edge>
    <edge id=":10070009919_4" function="internal">
        <lane id=":10070009919_4_0" index="0" allow="pedestrian delivery bicycle" speed="5.56" length="10.70" shape="2628.64,3052.17 2629.42,3055.04 2629.04,3057.39 2627.51,3059.20 2624.83,3060.49"/>
    </edge>
    <edge id=":10070009919_5" function="internal">
        <lane id=":10070009919_5_0" index="0" allow="pedestrian delivery bicycle" speed="3.65" length="4.67" shape="2628.64,3052.17 2628.38,3053.59 2627.81,3054.28 2626.91,3054.23 2625.70,3053.45"/>
    </edge>
    <edge id=":10070009919_6" function="internal">
        <lane id=":10070009919_6_0" index="0" allow="pedestrian delivery bicycle" speed="4.93" length="5.13" shape="2623.88,3057.43 2625.16,3056.82 2625.90,3055.95 2626.08,3054.82 2625.70,3053.45"/>
    </edge>
    <edge id=":10070009919_7" function="internal">
        <lane id=":10070009919_7_0" index="0" allow="pedestrian delivery bicycle" speed="5.56" length="9.57" shape="2623.88,3057.43 2626.59,3056.58 2628.43,3055.96 2630.24,3055.25 2632.86,3054.15"/>
    </edge>
    <edge id=":10070009919_8" function="internal">
        <lane id=":10070009919_8_0" index="0" allow="pedestrian delivery bicycle" speed="3.65" length="4.67" shape="2623.88,3057.43 2625.26,3057.84 2625.88,3058.48 2625.74,3059.36 2624.83,3060.49"/>
    </edge>
    <edge id=":10070009920_0" function="internal">
        <lane id=":10070009920_0_0" index="0" allow="pedestrian delivery bicycle" speed="5.27" length="5.19" shape="2604.91,3005.45 2604.15,3004.18 2603.21,3003.40 2602.08,3003.12 2600.77,3003.34"/>
    </edge>
    <edge id=":10070009920_1" function="internal">
        <lane id=":10070009920_1_0" index="0" allow="pedestrian delivery bicycle" speed="5.56" length="10.30" shape="2604.91,3005.45 2604.16,3002.72 2604.48,3000.42 2605.87,2998.57 2608.32,2997.15"/>
    </edge>
    <edge id=":10070009920_2" function="internal">
        <lane id=":10070009920_2_0" index="0" allow="pedestrian delivery bicycle" speed="3.65" length="4.67" shape="2604.91,3005.45 2605.16,3004.03 2605.74,3003.35 2606.63,3003.39 2607.84,3004.18"/>
    </edge>
    <edge id=":10070009920_3" function="internal">
        <lane id=":10070009920_3_0" index="0" allow="pedestrian delivery bicycle" speed="5.01" length="5.03" shape="2609.51,3000.12 2608.31,3000.81 2607.63,3001.72 2607.48,3002.84 2607.84,3004.18"/>
    </edge>
    <edge id=":10070009920_4" function="internal">
        <lane id=":10070009920_4_0" index="0" allow="pedestrian delivery bicycle" speed="5.56" length="9.31" shape="2609.51,3000.12 2600.77,3003.34"/>
    </edge>
    <edge id=":10070009920_5" function="internal">
        <lane id=":10070009920_5_0" index="0" allow="pedestrian delivery bicycle" speed="3.65" length="4.67" shape="2609.51,3000.12 2608.10,2999.83 2607.43,2999.23 2607.50,2998.34 2608.32,2997.15"/>
    </edge>
    <edge id=":10070009920_6" function="internal">
        <lane id=":10070009920_6_0" index="0" allow="pedestrian delivery bicycle" speed="5.56" length="9.12" shape="2599.76,3000.31 2608.32,2997.15"/>
    </edge>
    <edge id=":10070009920_7" function="internal">
        <lane id=":10070009920_7_0" index="0" allow="pedestrian delivery bicycle" speed="5.56" length="10.04" shape="2599.76,3000.31 2602.36,2999.85 2604.58,3000.34 2606.40,3001.78 2607.84,3004.18"/>
    </edge>
    <edge id=":10070009920_8" function="internal">
        <lane id=":10070009920_8_0" index="0" allow="pedestrian delivery bicycle" speed="3.65" length="4.67" shape="2599.76,3000.31 2601.15,3000.69 2601.78,3001.32 2601.66,3002.20 2600.77,3003.34"/>
    </edge>
    <edge id=":10070009923_0" function="internal">
        <lane id=":10070009923_0_0" index="0" allow="pedestrian delivery bicycle" speed="4.97" length="5.08" shape="2487.29,3044.88 2486.68,3043.61 2485.83,3042.87 2484.71,3042.65 2483.34,3042.96"/>
    </edge>
    <edge id=":10070009923_1" function="internal">
        <lane id=":10070009923_1_0" index="0" allow="pedestrian delivery bicycle" speed="5.56" length="10.28" shape="2487.29,3044.88 2486.81,3042.05 2487.31,3039.75 2488.78,3037.97 2491.23,3036.72"/>
    </edge>
    <edge id=":10070009923_2" function="internal">
        <lane id=":10070009923_2_0" index="0" allow="pedestrian delivery bicycle" speed="3.65" length="4.67" shape="2487.29,3044.88 2487.70,3043.50 2488.34,3042.88 2489.22,3043.02 2490.34,3043.93"/>
    </edge>
    <edge id=":10070009923_3" function="internal">
        <lane id=":10070009923_3_0" index="0" allow="pedestrian delivery bicycle" speed="5.17" length="5.21" shape="2492.25,3039.75 2491.04,3040.38 2490.32,3041.28 2490.09,3042.47 2490.34,3043.93"/>
    </edge>
    <edge id=":10070009923_4" function="internal">
        <lane id=":10070009923_4_0" index="0" allow="pedestrian delivery bicycle" speed="5.56" length="9.47" shape="2492.25,3039.75 2483.34,3042.96"/>
    </edge>
    <edge id=":10070009923_5" function="internal">
        <lane id=":10070009923_5_0" index="0" allow="pedestrian delivery bicycle" speed="3.65" length="4.67" shape="2492.25,3039.75 2490.86,3039.37 2490.22,3038.74 2490.35,3037.86 2491.23,3036.72"/>
    </edge>
    <edge id=":10070009923_6" function="internal">
        <lane id=":10070009923_6_0" index="0" allow="pedestrian delivery bicycle" speed="5.56" length="9.60" shape="2482.20,3039.98 2491.23,3036.72"/>
    </edge>
    <edge id=":10070009923_7" function="internal">
        <lane id=":10070009923_7_0" index="0" allow="pedestrian delivery bicycle" speed="5.56" length="10.49" shape="2482.20,3039.98 2485.02,3039.33 2487.33,3039.78 2489.10,3041.31 2490.34,3043.93"/>
    </edge>
    <edge id=":10070009923_8" function="internal">
        <lane id=":10070009923_8_0" index="0" allow="pedestrian delivery bicycle" speed="3.65" length="4.67" shape="2482.20,3039.98 2483.60,3040.29 2484.26,3040.90 2484.17,3041.79 2483.34,3042.96"/>
    </edge>
    <edge id=":10070009924_0" function="internal">
        <lane id=":10070009924_0_0" index="0" allow="pedestrian delivery bicycle" speed="5.56" length="5.60" shape="2507.53,3103.39 2506.50,3102.79 2505.27,3102.53 2503.83,3102.61 2502.18,3103.04"/>
    </edge>
    <edge id=":10070009924_1" function="internal">
        <lane id=":10070009924_1_0" index="0" allow="pedestrian delivery bicycle" speed="5.56" length="8.72" shape="2507.53,3103.39 2505.65,3101.67 2504.58,3100.25 2503.90,3098.57 2503.14,3096.11"/>
    </edge>
    <edge id=":10070009924_2" function="internal">
        <lane id=":10070009924_2_0" index="0" allow="pedestrian delivery bicycle" speed="3.65" length="4.67" shape="2507.53,3103.39 2507.13,3102.01 2507.33,3101.14 2508.15,3100.78 2509.59,3100.94"/>
    </edge>
    <edge id=":10070009924_3" function="internal">
        <lane id=":10070009924_3_0" index="0" allow="pedestrian delivery bicycle" speed="5.56" length="6.87" shape="2506.20,3095.16 2506.78,3097.11 2507.30,3098.44 2508.12,3099.58 2509.59,3100.94"/>
    </edge>
    <edge id=":10070009924_4" function="internal">
        <lane id=":10070009924_4_0" index="0" allow="pedestrian delivery bicycle" speed="5.56" length="10.03" shape="2506.20,3095.16 2506.63,3097.86 2506.10,3100.08 2504.62,3101.80 2502.18,3103.04"/>
    </edge>
    <edge id=":10070009924_5" function="internal">
        <lane id=":10070009924_5_0" index="0" allow="pedestrian delivery bicycle" speed="3.65" length="4.67" shape="2506.20,3095.16 2505.79,3096.54 2505.14,3097.16 2504.26,3097.02 2503.14,3096.11"/>
    </edge>
    <edge id=":10070009924_6" function="internal">
        <lane id=":10070009924_6_0" index="0" allow="pedestrian delivery bicycle" speed="5.07" length="4.97" shape="2501.15,3100.01 2502.36,3099.40 2503.09,3098.54 2503.35,3097.44 2503.14,3096.11"/>
    </edge>
    <edge id=":10070009924_7" function="internal">
        <lane id=":10070009924_7_0" index="0" allow="pedestrian delivery bicycle" speed="5.56" length="8.89" shape="2501.15,3100.01 2503.63,3099.40 2505.87,3099.36 2507.85,3099.87 2509.59,3100.94"/>
    </edge>
    <edge id=":10070009924_8" function="internal">
        <lane id=":10070009924_8_0" index="0" allow="pedestrian delivery bicycle" speed="3.65" length="4.67" shape="2501.15,3100.01 2502.54,3100.38 2503.18,3101.01 2503.05,3101.89 2502.18,3103.04"/>
    </edge>
    <edge id=":10070009925_0" function="internal">
        <lane id=":10070009925_0_0" index="0" allow="pedestrian delivery bicycle" speed="3.65" length="4.67" shape="2429.87,3127.59 2428.48,3127.21 2427.84,3126.58 2427.97,3125.70 2428.85,3124.55"/>
    </edge>
    <edge id=":10070009926_0" function="internal">
        <lane id=":10070009926_0_0" index="0" allow="pedestrian delivery bicycle" speed="5.56" length="9.34" shape="2559.50,3084.33 2556.36,3075.53"/>
    </edge>
    <edge id=":10070009926_1" function="internal">
        <lane id=":10070009926_1_0" index="0" allow="pedestrian delivery bicycle" speed="5.56" length="10.33" shape="2559.50,3084.33 2558.95,3081.54 2559.44,3079.27 2560.97,3077.52 2563.53,3076.30"/>
    </edge>
    <edge id=":10070009926_2" function="internal">
        <lane id=":10070009926_2_0" index="0" allow="pedestrian delivery bicycle" speed="3.65" length="4.67" shape="2559.50,3084.33 2559.85,3082.93 2560.48,3082.29 2561.37,3082.40 2562.52,3083.27"/>
    </edge>
    <edge id=":10070009926_3" function="internal">
        <lane id=":10070009926_3_0" index="0" allow="pedestrian delivery bicycle" speed="5.01" length="5.04" shape="2564.49,3079.35 2563.23,3079.95 2562.49,3080.80 2562.25,3081.91 2562.52,3083.27"/>
    </edge>
    <edge id=":10070009926_4" function="internal">
        <lane id=":10070009926_4_0" index="0" allow="pedestrian delivery bicycle" speed="5.56" length="10.14" shape="2564.49,3079.35 2561.71,3079.82 2559.43,3079.34 2557.65,3077.91 2556.36,3075.53"/>
    </edge>
    <edge id=":10070009926_5" function="internal">
        <lane id=":10070009926_5_0" index="0" allow="pedestrian delivery bicycle" speed="3.65" length="4.67" shape="2564.49,3079.35 2563.10,3078.95 2562.48,3078.30 2562.62,3077.42 2563.53,3076.30"/>
    </edge>
    <edge id=":10070009926_6" function="internal">
        <lane id=":10070009926_6_0" index="0" allow="pedestrian delivery bicycle" speed="5.18" length="5.15" shape="2559.36,3074.43 2560.01,3075.62 2560.92,3076.32 2562.10,3076.55 2563.53,3076.30"/>
    </edge>
    <edge id=":10070009926_7" function="internal">
        <lane id=":10070009926_7_0" index="0" allow="pedestrian delivery bicycle" speed="5.56" length="9.38" shape="2559.36,3074.43 2562.52,3083.27"/>
    </edge>
    <edge id=":10070009926_8" function="internal">
        <lane id=":10070009926_8_0" index="0" allow="pedestrian delivery bicycle" speed="3.65" length="4.67" shape="2559.36,3074.43 2559.02,3075.83 2558.41,3076.48 2557.52,3076.38 2556.36,3075.53"/>
    </edge>
    <edge id=":10070009927_0" function="internal">
        <lane id=":10070009927_0_0" index="0" allow="pedestrian delivery bicycle" speed="5.56" length="9.40" shape="2496.56,3074.84 2493.78,3065.86"/>
    </edge>
    <edge id=":10070009927_1" function="internal">
        <lane id=":10070009927_1_0" index="0" allow="pedestrian delivery bicycle" speed="5.56" length="10.17" shape="2496.56,3074.84 2496.12,3072.09 2496.67,3069.86 2498.21,3068.15 2500.73,3066.96"/>
    </edge>
    <edge id=":10070009927_2" function="internal">
        <lane id=":10070009927_2_0" index="0" allow="pedestrian delivery bicycle" speed="3.65" length="4.67" shape="2496.56,3074.84 2496.97,3073.46 2497.62,3072.84 2498.50,3072.99 2499.62,3073.90"/>
    </edge>
    <edge id=":10070009927_3" function="internal">
        <lane id=":10070009927_3_0" index="0" allow="pedestrian delivery bicycle" speed="5.04" length="5.00" shape="2501.67,3070.02 2500.43,3070.60 2499.67,3071.44 2499.40,3072.54 2499.62,3073.90"/>
    </edge>
    <edge id=":10070009927_4" function="internal">
        <lane id=":10070009927_4_0" index="0" allow="pedestrian delivery bicycle" speed="5.56" length="10.16" shape="2501.67,3070.02 2498.92,3070.45 2496.69,3069.90 2494.97,3068.37 2493.78,3065.86"/>
    </edge>
    <edge id=":10070009927_5" function="internal">
        <lane id=":10070009927_5_0" index="0" allow="pedestrian delivery bicycle" speed="3.65" length="4.67" shape="2501.67,3070.02 2500.29,3069.61 2499.67,3068.96 2499.82,3068.08 2500.73,3066.96"/>
    </edge>
    <edge id=":10070009927_6" function="internal">
        <lane id=":10070009927_6_0" index="0" allow="pedestrian delivery bicycle" speed="5.05" length="5.01" shape="2496.84,3064.92 2497.43,3066.15 2498.27,3066.91 2499.37,3067.18 2500.73,3066.96"/>
    </edge>
    <edge id=":10070009927_7" function="internal">
        <lane id=":10070009927_7_0" index="0" allow="pedestrian delivery bicycle" speed="5.56" length="9.40" shape="2496.84,3064.92 2499.62,3073.90"/>
    </edge>
    <edge id=":10070009927_8" function="internal">
        <lane id=":10070009927_8_0" index="0" allow="pedestrian delivery bicycle" speed="3.65" length="4.67" shape="2496.84,3064.92 2496.43,3066.30 2495.79,3066.92 2494.90,3066.77 2493.78,3065.86"/>
    </edge>
    <edge id=":10070009928_0" function="internal">
        <lane id=":10070009928_0_0" index="0" allow="pedestrian delivery bicycle" speed="5.26" length="5.33" shape="2550.10,3058.34 2549.44,3057.16 2548.49,3056.47 2547.25,3056.26 2545.73,3056.53"/>
    </edge>
    <edge id=":10070009928_1" function="internal">
        <lane id=":10070009928_1_0" index="0" allow="pedestrian delivery bicycle" speed="5.56" length="9.48" shape="2550.10,3058.34 2546.67,3049.50"/>
    </edge>
    <edge id=":10070009928_2" function="internal">
        <lane id=":10070009928_2_0" index="0" allow="pedestrian delivery bicycle" speed="3.65" length="4.67" shape="2550.10,3058.34 2550.44,3056.94 2551.06,3056.29 2551.94,3056.39 2553.11,3057.25"/>
    </edge>
    <edge id=":10070009928_3" function="internal">
        <lane id=":10070009928_3_0" index="0" allow="pedestrian delivery bicycle" speed="5.56" length="9.61" shape="2549.63,3048.29 2553.11,3057.25"/>
    </edge>
    <edge id=":10070009928_4" function="internal">
        <lane id=":10070009928_4_0" index="0" allow="pedestrian delivery bicycle" speed="5.56" length="10.63" shape="2549.63,3048.29 2550.35,3051.15 2549.94,3053.48 2548.40,3055.27 2545.73,3056.53"/>
    </edge>
    <edge id=":10070009928_5" function="internal">
        <lane id=":10070009928_5_0" index="0" allow="pedestrian delivery bicycle" speed="3.65" length="4.67" shape="2549.63,3048.29 2549.34,3049.70 2548.76,3050.38 2547.86,3050.31 2546.67,3049.50"/>
    </edge>
    <edge id=":10070009928_6" function="internal">
        <lane id=":10070009928_6_0" index="0" allow="pedestrian delivery bicycle" speed="4.95" length="5.11" shape="2544.79,3053.47 2546.08,3052.86 2546.82,3052.00 2547.01,3050.88 2546.67,3049.50"/>
    </edge>
    <edge id=":10070009928_7" function="internal">
        <lane id=":10070009928_7_0" index="0" allow="pedestrian delivery bicycle" speed="5.56" length="10.30" shape="2544.79,3053.47 2547.65,3052.99 2549.99,3053.46 2551.81,3054.88 2553.11,3057.25"/>
    </edge>
    <edge id=":10070009928_8" function="internal">
        <lane id=":10070009928_8_0" index="0" allow="pedestrian delivery bicycle" speed="3.65" length="4.67" shape="2544.79,3053.47 2546.17,3053.88 2546.79,3054.53 2546.64,3055.41 2545.73,3056.53"/>
    </edge>
    <edge id=":10116588176_0" function="internal">
        <lane id=":10116588176_0_0" index="0" allow="pedestrian delivery bicycle" speed="4.77" length="5.45" shape="2683.69,2832.54 2682.83,2831.22 2681.83,2830.65 2680.69,2830.83 2679.42,2831.75"/>
    </edge>
    <edge id=":10116588176_1" function="internal">
        <lane id=":10116588176_1_0" index="0" allow="pedestrian delivery bicycle" speed="5.56" length="11.63" shape="2683.69,2832.54 2682.21,2829.65 2680.97,2827.34 2680.04,2824.95 2679.47,2821.81"/>
    </edge>
    <edge id=":10116588176_2" function="internal">
        <lane id=":10116588176_2_0" index="0" allow="pedestrian bicycle" speed="5.56" length="12.40" shape="2683.69,2832.54 2682.71,2829.39 2682.83,2826.50 2684.06,2823.88 2686.39,2821.53"/>
    </edge>
    <edge id=":10116588176_3" function="internal">
        <lane id=":10116588176_3_0" index="0" allow="pedestrian delivery bicycle" speed="3.65" length="4.67" shape="2683.69,2832.54 2683.91,2831.12 2684.46,2830.42 2685.36,2830.44 2686.59,2831.19"/>
    </edge>
    <edge id=":10116588176_4" function="internal">
        <lane id=":10116588176_4_0" index="0" allow="pedestrian bicycle" speed="5.56" length="8.02" shape="2688.34,2824.07 2686.83,2825.59 2686.03,2827.28 2685.95,2829.15 2686.59,2831.19"/>
    </edge>
    <edge id=":10116588176_5" function="internal">
        <lane id=":10116588176_5_0" index="0" allow="pedestrian bicycle" speed="5.56" length="11.78" shape="2688.34,2824.07 2685.78,2826.07 2683.74,2827.75 2681.77,2829.51 2679.42,2831.75"/>
    </edge>
    <edge id=":10116588176_6" function="internal">
        <lane id=":10116588176_6_0" index="0" allow="pedestrian bicycle" speed="5.56" length="12.59" shape="2688.34,2824.07 2684.77,2826.24 2682.10,2826.59 2680.33,2825.11 2679.47,2821.81"/>
    </edge>
    <edge id=":10116588176_7" function="internal">
        <lane id=":10116588176_7_0" index="0" allow="pedestrian motorcycle moped bicycle" speed="3.65" length="4.67" shape="2688.34,2824.07 2686.90,2824.17 2686.10,2823.77 2685.93,2822.90 2686.39,2821.53"/>
    </edge>
    <edge id=":10116588176_8" function="internal">
        <lane id=":10116588176_8_0" index="0" allow="pedestrian bicycle" speed="4.55" length="5.54" shape="2682.55,2820.39 2682.93,2821.89 2683.69,2822.58 2684.85,2822.46 2686.39,2821.53"/>
    </edge>
    <edge id=":10116588176_9" function="internal">
        <lane id=":10116588176_9_0" index="0" allow="pedestrian delivery bicycle" speed="5.56" length="11.62" shape="2682.55,2820.39 2683.09,2823.54 2683.96,2825.96 2685.13,2828.29 2686.59,2831.19"/>
    </edge>
    <edge id=":10116588176_10" function="internal">
        <lane id=":10116588176_10_0" index="0" allow="pedestrian delivery bicycle" speed="5.56" length="12.18" shape="2682.55,2820.39 2682.63,2823.96 2682.14,2827.04 2681.07,2829.64 2679.42,2831.75"/>
    </edge>
    <edge id=":10116588176_11" function="internal">
        <lane id=":10116588176_11_0" index="0" allow="pedestrian delivery bicycle" speed="3.72" length="4.95" shape="2682.55,2820.39 2682.31,2821.90 2681.72,2822.64 2680.77,2822.61 2679.47,2821.81"/>
    </edge>
    <edge id=":10116588176_12" function="internal">
        <lane id=":10116588176_12_0" index="0" allow="pedestrian delivery bicycle" speed="5.56" length="8.24" shape="2677.20,2829.44 2678.37,2827.97 2679.14,2826.20 2679.51,2824.15 2679.47,2821.81"/>
    </edge>
    <edge id=":10116588176_13" function="internal">
        <lane id=":10116588176_13_0" index="0" allow="pedestrian bicycle" speed="5.56" length="12.14" shape="2677.20,2829.44 2679.59,2827.17 2681.66,2825.33 2683.79,2823.56 2686.39,2821.53"/>
    </edge>
    <edge id=":10116588176_14" function="internal">
        <lane id=":10116588176_14_0" index="0" allow="pedestrian delivery bicycle" speed="5.56" length="11.99" shape="2677.20,2829.44 2680.00,2827.42 2682.50,2827.03 2684.70,2828.29 2686.59,2831.19"/>
    </edge>
    <edge id=":10116588176_15" function="internal">
        <lane id=":10116588176_15_0" index="0" allow="pedestrian delivery bicycle" speed="3.65" length="4.67" shape="2677.20,2829.44 2678.61,2829.19 2679.46,2829.49 2679.73,2830.34 2679.42,2831.75"/>
    </edge>
    <edge id=":10116617779_0" function="internal">
        <lane id=":10116617779_0_0" index="0" allow="pedestrian delivery bicycle" speed="5.56" length="15.81" shape="2687.59,2324.73 2683.86,2325.38 2680.18,2326.97 2676.60,2328.95 2673.15,2330.82"/>
    </edge>