<?xml version="1.0" encoding="UTF-8"?>

<!-- generated on 2024-09-24 11:04:03.052740 by randomTrips.py v1_20_0+0002-343658e7c64
<configuration>
    <net-file value="D:\PBL-2_FInal\map.net.xml"/>
    <route-file value="D:\PBL-2_FInal\generated_routes.rou.xml"/>
    <end value="1000.0"/>
    <binomial value="2"/>
</configuration>
-->

<routes xmlns:xsi="http://www.w3.org/2001/XMLSchema-instance" xsi:noNamespaceSchemaLocation="http://sumo.dlr.de/xsd/routes_file.xsd">
    <trip id="0" depart="0.00" from="-1117973868" to="-1118009891#0"/>
    <trip id="1" depart="2.00" from="-365247179#0" to="-1056592911#2"/>
    <trip id="2" depart="3.00" from="-543674391#1" to="-1056592911#2"/>
    <trip id="3" depart="3.00" from="1056592915#4" to="1056592915#0"/>
    <trip id="4" depart="4.00" from="1056592913" to="1118011515"/>
    <trip id="5" depart="4.00" from="1118009891#1" to="1117973868"/>
    <trip id="6" depart="5.00" from="-1056592915#4" to="365247179#4"/>
    <trip id="7" depart="5.00" from="-1056592913" to="-1056592915#1"/>
    <trip id="8" depart="9.00" from="1056592912#0" to="1118013820#0"/>
    <trip id="9" depart="11.00" from="-1117969567#1" to="-1120090250#0"/>
    <trip id="10" depart="12.00" from="-1117969581" to="-1056592915#1"/>
    <trip id="11" depart="12.00" from="1056592915#3" to="-365247179#3"/>
    <trip id="12" depart="13.00" from="-1117969567#0" to="-1118013820#0"/>
    <trip id="13" depart="15.00" from="1117973867#1" to="-1117969566#0"/>
    <trip id="14" depart="15.00" from="991865589" to="1117969567#0"/>
    <trip id="15" depart="18.00" from="-1056592911#1" to="-1120090251#1"/>
    <trip id="16" depart="18.00" from="-1117969567#0" to="365247179#3"/>
    <trip id="17" depart="19.00" from="1056592915#5" to="-395971844#1"/>
    <trip id="18" depart="20.00" from="-1117973867#2" to="-1118011516"/>
    <trip id="19" depart="21.00" from="1056592913" to="1124813162"/>
    <trip id="20" depart="22.00" from="-1117969567#0" to="543674391#1"/>
    <trip id="21" depart="23.00" from="-1056592912#0" to="-1056592915#2"/>
    <trip id="22" depart="24.00" from="-1056592912#1" to="-365247179#4"/>
    <trip id="23" depart="27.00" from="1117973867#0" to="1117973867#1"/>
    <trip id="24" depart="28.00" from="1056592915#4" to="-1056592915#2"/>
    <trip id="25" depart="28.00" from="-365247179#3" to="365247179#4"/>
    <trip id="26" depart="29.00" from="-543674391#1" to="-1117969567#0"/>
    <trip id="27" depart="31.00" from="1056592915#3" to="1056592916"/>
    <trip id="28" depart="31.00" from="1117973879#0" to="1056592915#0"/>
    <trip id="29" depart="33.00" from="-1118011515" to="-1056592911#1"/>
    <trip id="30" depart="35.00" from="-1056592912#0" to="1120090250#1"/>
    <trip id="31" depart="36.00" from="-395971844#1" to="-1056592912#2"/>
    <trip id="32" depart="37.00" from="-365247179#4" to="1056592915#1"/>
    <trip id="33" depart="38.00" from="1120090251#0" to="-991865589"/>
    <trip id="34" depart="38.00" from="1056592911#2" to="1117973877#1"/>
    <trip id="35" depart="39.00" from="-1118009891#2" to="543674391#1"/>
    <trip id="36" depart="40.00" from="1056592911#0" to="-1056592915#3"/>
    <trip id="37" depart="40.00" from="-1118013820#0" to="1056592915#4"/>
    <trip id="38" depart="41.00" from="-1117969567#0" to="-1056592913"/>
    <trip id="39" depart="42.00" from="365247179#0" to="1120090248"/>
    <trip id="40" depart="42.00" from="-1117969581" to="1117969581"/>
    <trip id="41" depart="43.00" from="-1056592915#2" to="365247179#2"/>
    <trip id="42" depart="44.00" from="1117973879#2" to="1118011515"/>
    <trip id="43" depart="44.00" from="-1056592914" to="1056592910"/>
    <trip id="44" depart="45.00" from="-365247179#4" to="1117973877#1"/>
    <trip id="45" depart="46.00" from="-1120090251#1" to="-365247179#1"/>
    <trip id="46" depart="47.00" from="-1117969566#0" to="1056592911#0"/>
    <trip id="47" depart="48.00" from="-1117973868" to="-1118011516"/>
    <trip id="48" depart="49.00" from="1120090250#1" to="1056592915#1"/>
    <trip id="49" depart="49.00" from="991865589" to="1118013820#0"/>
    <trip id="50" depart="51.00" from="-395971844#1" to="-1117973867#1"/>
    <trip id="51" depart="52.00" from="-1056592912#1" to="-365247179#4"/>
    <trip id="52" depart="53.00" from="1117973879#2" to="1056592911#1"/>
    <trip id="53" depart="53.00" from="395971844#0" to="543674391#1"/>
    <trip id="54" depart="55.00" from="-1118009891#1" to="395971844#1"/>
    <trip id="55" depart="57.00" from="1056592913" to="1056592912#2"/>
    <trip id="56" depart="58.00" from="395971844#0" to="-1056592913"/>
    <trip id="57" depart="58.00" from="1056592915#0" to="1117973867#1"/>
    <trip id="58" depart="59.00" from="-1056592915#1" to="1120090251#1"/>
    <trip id="59" depart="59.00" from="1056592915#0" to="1117969566#0"/>
    <trip id="60" depart="60.00" from="1056592913" to="1056592913"/>
    <trip id="61" depart="61.00" from="1117973867#0" to="-1118009891#1"/>
    <trip id="62" depart="61.00" from="1056592917" to="-1120090250#1"/>
    <trip id="63" depart="62.00" from="1117973877#1" to="-1056592913"/>
    <trip id="64" depart="62.00" from="991865589" to="543674391#1"/>
    <trip id="65" depart="63.00" from="-1117969567#0" to="-1118013820#0"/>
    <trip id="66" depart="65.00" from="-1056592915#4" to="1118013820#0"/>
    <trip id="67" depart="67.00" from="1118011516" to="-1120090250#1"/>
    <trip id="68" depart="69.00" from="-1056592915#0" to="-1056592915#2"/>
    <trip id="69" depart="70.00" from="1056592915#1" to="1117973877#0"/>
    <trip id="70" depart="70.00" from="1056592915#3" to="-1118013820#0"/>
    <trip id="71" depart="71.00" from="365247179#0" to="1118013820#1"/>
    <trip id="72" depart="71.00" from="-365247179#0" to="-1120090249#0"/>
    <trip id="73" depart="72.00" from="1117973879#1" to="1117969566#1"/>
    <trip id="74" depart="72.00" from="1117973877#0" to="1056592915#1"/>
    <trip id="75" depart="73.00" from="-1056592910" to="-1056592913"/>
    <trip id="76" depart="76.00" from="-1056592915#1" to="-1120090251#0"/>
    <trip id="77" depart="78.00" from="-1117973867#1" to="-1056592915#1"/>
    <trip id="78" depart="80.00" from="1056592915#2" to="-1056592917"/>
    <trip id="79" depart="83.00" from="1117973877#0" to="-365247179#0"/>
    <trip id="80" depart="85.00" from="1117973879#2" to="-1056592915#2"/>
    <trip id="81" depart="87.00" from="1118011516" to="1056592911#1"/>
    <trip id="82" depart="87.00" from="1118009891#0" to="-1118009891#0"/>
    <trip id="83" depart="88.00" from="-1117969566#0" to="-365247179#0"/>
    <trip id="84" depart="89.00" from="1056592915#4" to="-395971844#1"/>
    <trip id="85" depart="91.00" from="395971844#1" to="-1117969567#0"/>
    <trip id="86" depart="92.00" from="-1056592915#0" to="1056592910"/>
    <trip id="87" depart="93.00" from="1056592915#1" to="1056592912#2"/>
    <trip id="88" depart="94.00" from="1056592912#2" to="-1118011516"/>
    <trip id="89" depart="95.00" from="365247179#2" to="1056592915#0"/>
    <trip id="90" depart="97.00" from="-1056592912#2" to="1117969581"/>
    <trip id="91" depart="97.00" from="-1118009891#2" to="1118013820#1"/>
    <trip id="92" depart="98.00" from="-1118009891#2" to="-543674391#0"/>
    <trip id="93" depart="99.00" from="-1118009891#1" to="-1056592915#3"/>
    <trip id="94" depart="99.00" from="365247179#3" to="1117973867#1"/>
    <trip id="95" depart="101.00" from="1056592912#0" to="-1056592911#0"/>
    <trip id="96" depart="101.00" from="-365247179#0" to="1056592915#3"/>
    <trip id="97" depart="102.00" from="-365247179#2" to="-1117973867#1"/>
    <trip id="98" depart="103.00" from="365247179#0" to="1118009891#2"/>
    <trip id="99" depart="103.00" from="-1056592913" to="1056592913"/>
    <trip id="100" depart="104.00" from="1118011516" to="1117973879#1"/>
    <trip id="101" depart="105.00" from="-1117969566#1" to="-1056592911#2"/>
    <trip id="102" depart="106.00" from="-365247179#4" to="1120090248"/>
    <trip id="103" depart="106.00" from="-1124813162" to="1117969566#1"/>
    <trip id="104" depart="107.00" from="1117969567#0" to="1056592912#1"/>
    <trip id="105" depart="107.00" from="1056592915#5" to="-1056592911#0"/>
    <trip id="106" depart="109.00" from="-365247179#0" to="-1117969567#0"/>
    <trip id="107" depart="110.00" from="-1117973867#1" to="1118013820#1"/>
    <trip id="108" depart="111.00" from="1118009891#0" to="1117969581"/>
    <trip id="109" depart="117.00" from="-1117973867#2" to="-1118011516"/>
    <trip id="110" depart="119.00" from="-1056592912#2" to="-1120090250#0"/>
    <trip id="111" depart="120.00" from="-1118011515" to="1056592915#0"/>
    <trip id="112" depart="120.00" from="-1117969567#1" to="1117973867#2"/>
    <trip id="113" depart="121.00" from="-1124813162" to="1056592915#0"/>
    <trip id="114" depart="122.00" from="-1117969566#1" to="-991865589"/>
    <trip id="115" depart="125.00" from="-1056592910" to="-365247179#2"/>
    <trip id="116" depart="127.00" from="1117973877#1" to="1056592915#0"/>
    <trip id="117" depart="128.00" from="-1117969567#0" to="1056592910"/>
    <trip id="118" depart="128.00" from="-1118011516" to="1117973867#1"/>
    <trip id="119" depart="129.00" from="-1056592915#5" to="1056592911#2"/>
    <trip id="120" depart="129.00" from="1056592915#2" to="-1056592911#2"/>
    <trip id="121" depart="130.00" from="1056592912#1" to="-1056592911#2"/>
    <trip id="122" depart="131.00" from="-365247179#3" to="-1056592912#1"/>
    <trip id="123" depart="131.00" from="-1117969567#0" to="-365247179#0"/>
    <trip id="124" depart="132.00" from="1117973877#1" to="1118013820#0"/>
    <trip id="125" depart="133.00" from="-1056592913" to="-1056592911#1"/>
    <trip id="126" depart="134.00" from="1056592915#4" to="1118009891#1"/>
    <trip id="127" depart="136.00" from="-1056592911#0" to="-1056592917"/>
    <trip id="128" depart="137.00" from="1056592917" to="1056592915#2"/>
    <trip id="129" depart="137.00" from="1117969581" to="1117973879#2"/>
    <trip id="130" depart="138.00" from="1056592915#1" to="1117973879#1"/>
    <trip id="131" depart="138.00" from="1118011516" to="365247179#4"/>
    <trip id="132" depart="139.00" from="-1056592911#1" to="-1120090251#0"/>
    <trip id="133" depart="140.00" from="1117973867#0" to="-1056592913"/>
    <trip id="134" depart="142.00" from="1117973879#1" to="1120090248"/>
    <trip id="135" depart="143.00" from="543674391#0" to="1118009891#1"/>
    <trip id="136" depart="143.00" from="-365247179#0" to="-365247179#3"/>
    <trip id="137" depart="144.00" from="1120090250#0" to="1118011516"/>
    <trip id="138" depart="145.00" from="395971844#0" to="1117969566#1"/>
    <trip id="139" depart="146.00" from="1117973877#0" to="395971844#1"/>
    <trip id="140" depart="147.00" from="1118009891#1" to="1056592915#0"/>
    <trip id="141" depart="147.00" from="-365247179#1" to="1117973877#1"/>
    <trip id="142" depart="148.00" from="1120090250#0" to="1118013820#0"/>
    <trip id="143" depart="148.00" from="1120090251#0" to="-1118009891#1"/>
    <trip id="144" depart="149.00" from="1056592915#1" to="-365247179#4"/>
    <trip id="145" depart="149.00" from="1120090250#0" to="-1117969567#0"/>
    <trip id="146" depart="150.00" from="1118009891#0" to="-365247179#1"/>
    <trip id="147" depart="151.00" from="-1056592910" to="365247179#3"/>
    <trip id="148" depart="152.00" from="1117973867#0" to="1056592912#1"/>
    <trip id="149" depart="154.00" from="1118009891#0" to="-1056592915#1"/>
    <trip id="150" depart="154.00" from="1117969567#0" to="-1120090251#0"/>
    <trip id="151" depart="155.00" from="1056592911#1" to="-991865589"/>
    <trip id="152" depart="156.00" from="1117969581" to="-1120090249#0"/>
    <trip id="153" depart="157.00" from="-1056592915#1" to="-1117969581"/>
    <trip id="154" depart="157.00" from="1056592911#2" to="1117973879#2"/>
    <trip id="155" depart="158.00" from="-1117969567#0" to="1056592912#0"/>
    <trip id="156" depart="160.00" from="-1056592914" to="-1117969581"/>
    <trip id="157" depart="160.00" from="-1056592916" to="-1056592911#1"/>
    <trip id="158" depart="161.00" from="395971844#1" to="1056592915#1"/>
    <trip id="159" depart="162.00" from="1120090250#1" to="1056592912#1"/>
    <trip id="160" depart="164.00" from="-365247179#1" to="-1117969567#0"/>
    <trip id="161" depart="164.00" from="365247179#3" to="1056592912#0"/>
    <trip id="162" depart="165.00" from="-1056592912#2" to="1117969566#1"/>
    <trip id="163" depart="166.00" from="-1056592915#3" to="1056592915#2"/>
    <trip id="164" depart="166.00" from="991865589" to="-1056592915#3"/>
    <trip id="165" depart="168.00" from="1056592911#0" to="1056592911#0"/>
    <trip id="166" depart="169.00" from="1120090250#0" to="543674391#1"/>
    <trip id="167" depart="169.00" from="1056592915#2" to="1056592916"/>
    <trip id="168" depart="171.00" from="-1117969567#0" to="1117969567#1"/>
    <trip id="169" depart="171.00" from="-1056592915#5" to="-1056592913"/>
    <trip id="170" depart="172.00" from="-365247179#2" to="1056592915#5"/>
    <trip id="171" depart="172.00" from="-1117969567#1" to="1117973868"/>
    <trip id="172" depart="173.00" from="1117969567#0" to="365247179#1"/>
    <trip id="173" depart="176.00" from="1056592911#2" to="1117969567#0"/>
    <trip id="174" depart="177.00" from="-1056592915#5" to="-1120090251#0"/>
    <trip id="175" depart="179.00" from="-1056592915#1" to="1117973867#2"/>
    <trip id="176" depart="181.00" from="-1056592912#2" to="-1056592912#0"/>
    <trip id="177" depart="181.00" from="-1118011515" to="-1118011516"/>
    <trip id="178" depart="182.00" from="395971844#0" to="1118013820#0"/>
    <trip id="179" depart="184.00" from="-1056592911#2" to="1117973879#2"/>
    <trip id="180" depart="185.00" from="1056592915#5" to="365247179#0"/>
    <trip id="181" depart="185.00" from="1056592913" to="1117969566#1"/>
    <trip id="182" depart="186.00" from="-1056592913" to="-365247179#1"/>
    <trip id="183" depart="186.00" from="1056592917" to="1120090248"/>
    <trip id="184" depart="187.00" from="1117969567#0" to="-1120090250#0"/>
    <trip id="185" depart="189.00" from="-1118011515" to="-1120090251#1"/>
    <trip id="186" depart="190.00" from="1056592911#0" to="543674391#0"/>
    <trip id="187" depart="191.00" from="-1117969566#0" to="-365247179#3"/>
    <trip id="188" depart="193.00" from="1056592912#0" to="365247179#1"/>
    <trip id="189" depart="194.00" from="1117969581" to="-1056592915#3"/>
    <trip id="190" depart="195.00" from="-1056592915#4" to="1056592915#1"/>
    <trip id="191" depart="196.00" from="991865589" to="365247179#0"/>
    <trip id="192" depart="197.00" from="-1056592915#1" to="1118013820#0"/>
    <trip id="193" depart="197.00" from="1117973867#0" to="1056592912#2"/>
    <trip id="194" depart="198.00" from="1118013820#0" to="543674391#0"/>
    <trip id="195" depart="198.00" from="1056592912#0" to="-365247179#4"/>
    <trip id="196" depart="201.00" from="1117973879#2" to="-543674391#0"/>
    <trip id="197" depart="203.00" from="-1118009891#1" to="1056592915#4"/>
    <trip id="198" depart="204.00" from="-1056592915#3" to="1056592915#0"/>
    <trip id="199" depart="204.00" from="1056592912#0" to="1056592915#0"/>
    <trip id="200" depart="205.00" from="-1118011515" to="-1117969581"/>
    <trip id="201" depart="206.00" from="1117973879#1" to="-1056592912#0"/>
    <trip id="202" depart="208.00" from="1056592917" to="1118011516"/>
    <trip id="203" depart="209.00" from="-1056592911#2" to="1056592912#2"/>
    <trip id="204" depart="211.00" from="1056592911#1" to="1056592911#1"/>
    <trip id="205" depart="212.00" from="1056592915#5" to="-1056592917"/>
    <trip id="206" depart="213.00" from="395971844#1" to="-365247179#1"/>
    <trip id="207" depart="216.00" from="-1118011515" to="1117973877#0"/>
    <trip id="208" depart="217.00" from="-1056592912#1" to="1117969566#1"/>
    <trip id="209" depart="219.00" from="-1056592914" to="1117969566#1"/>
    <trip id="210" depart="220.00" from="1117969567#0" to="1124813162"/>
    <trip id="211" depart="221.00" from="1118009891#0" to="-1120090250#1"/>
    <trip id="212" depart="221.00" from="-1056592915#3" to="1056592914"/>
    <trip id="213" depart="223.00" from="-1056592912#2" to="1120090249#1"/>
    <trip id="214" depart="224.00" from="365247179#1" to="-1056592915#5"/>
    <trip id="215" depart="224.00" from="-1117973867#1" to="-1118011516"/>
    <trip id="216" depart="225.00" from="1118009891#1" to="1124813162"/>
    <trip id="217" depart="226.00" from="-365247179#1" to="-365247179#1"/>
    <trip id="218" depart="227.00" from="-1117973867#1" to="1118013820#1"/>
    <trip id="219" depart="228.00" from="-1120090250#1" to="1056592912#0"/>
    <trip id="220" depart="228.00" from="1056592912#2" to="1056592915#3"/>
    <trip id="221" depart="229.00" from="543674391#0" to="1117969567#1"/>
    <trip id="222" depart="230.00" from="1056592912#1" to="1117973867#1"/>
    <trip id="223" depart="231.00" from="1056592915#1" to="1056592912#1"/>
    <trip id="224" depart="232.00" from="1118009891#0" to="1056592916"/>
    <trip id="225" depart="232.00" from="1056592915#3" to="1117969566#0"/>
    <trip id="226" depart="236.00" from="-365247179#1" to="1056592915#3"/>
    <trip id="227" depart="237.00" from="-1118009891#1" to="1117973879#1"/>
    <trip id="228" depart="238.00" from="-1056592915#2" to="1056592915#0"/>
    <trip id="229" depart="240.00" from="1118011516" to="1056592912#0"/>
    <trip id="230" depart="242.00" from="-1056592915#0" to="365247179#4"/>
    <trip id="231" depart="242.00" from="395971844#1" to="1120090248"/>
    <trip id="232" depart="245.00" from="1117973879#2" to="-1056592911#1"/>
    <trip id="233" depart="246.00" from="1056592917" to="1117969581"/>
    <trip id="234" depart="248.00" from="-1117969581" to="-1056592911#2"/>
    <trip id="235" depart="250.00" from="-1056592912#1" to="1118011516"/>
    <trip id="236" depart="251.00" from="-1124813162" to="-1056592915#5"/>
    <trip id="237" depart="252.00" from="-543674391#0" to="-1056592915#1"/>
    <trip id="238" depart="253.00" from="-365247179#3" to="1117969581"/>
    <trip id="239" depart="254.00" from="1117973877#0" to="-1056592917"/>
    <trip id="240" depart="255.00" from="-1056592914" to="1056592912#1"/>
    <trip id="241" depart="255.00" from="365247179#4" to="-1056592911#2"/>
    <trip id="242" depart="256.00" from="-365247179#2" to="365247179#3"/>
    <trip id="243" depart="257.00" from="1117969566#0" to="1056592915#0"/>
    <trip id="244" depart="258.00" from="-1120090251#1" to="-1117969581"/>
    <trip id="245" depart="258.00" from="1120090249#0" to="1056592911#1"/>
    <trip id="246" depart="260.00" from="1117973879#2" to="-1118009891#1"/>
    <trip id="247" depart="261.00" from="1056592912#1" to="-1056592912#2"/>
    <trip id="248" depart="262.00" from="-1117969567#0" to="1120090249#1"/>
    <trip id="249" depart="262.00" from="-1056592915#3" to="1124813162"/>
    <trip id="250" depart="263.00" from="1120090250#0" to="-1056592915#5"/>
    <trip id="251" depart="263.00" from="-1117973867#1" to="-1117969567#0"/>
    <trip id="252" depart="264.00" from="-1056592911#0" to="1118009891#1"/>
    <trip id="253" depart="265.00" from="-1118011515" to="-1117969566#0"/>
    <trip id="254" depart="265.00" from="1117973877#0" to="1056592914"/>
    <trip id="255" depart="266.00" from="1117973879#1" to="1056592913"/>
    <trip id="256" depart="267.00" from="-543674391#1" to="365247179#3"/>
    <trip id="257" depart="267.00" from="1117973879#2" to="1120090249#1"/>
    <trip id="258" depart="268.00" from="395971844#0" to="-1056592912#2"/>
    <trip id="259" depart="269.00" from="-1120090251#1" to="1117973867#2"/>
    <trip id="260" depart="269.00" from="365247179#1" to="-1056592913"/>
    <trip id="261" depart="270.00" from="1056592915#1" to="-1056592912#2"/>
    <trip id="262" depart="270.00" from="1056592915#3" to="1056592915#1"/>
    <trip id="263" depart="271.00" from="991865589" to="1056592914"/>
    <trip id="264" depart="271.00" from="1056592915#1" to="-1056592915#1"/>
    <trip id="265" depart="274.00" from="-365247179#2" to="-1118009891#0"/>
    <trip id="266" depart="275.00" from="-365247179#3" to="-543674391#0"/>
    <trip id="267" depart="275.00" from="-365247179#0" to="1117969581"/>
    <trip id="268" depart="276.00" from="-1056592915#4" to="365247179#1"/>
    <trip id="269" depart="276.00" from="1118013820#0" to="-1056592915#1"/>
    <trip id="270" depart="277.00" from="1117973877#0" to="1118011515"/>
    <trip id="271" depart="279.00" from="-1056592915#1" to="-365247179#2"/>
    <trip id="272" depart="282.00" from="1056592912#2" to="-1117973867#1"/>
    <trip id="273" depart="283.00" from="-1056592915#0" to="1118013820#1"/>
    <trip id="274" depart="284.00" from="1117973879#0" to="1056592915#3"/>
    <trip id="275" depart="287.00" from="365247179#2" to="1118013820#0"/>
    <trip id="276" depart="288.00" from="-1056592916" to="1117973868"/>
    <trip id="277" depart="288.00" from="-1118013820#0" to="-1056592911#0"/>
    <trip id="278" depart="290.00" from="-1056592915#3" to="1117969566#1"/>
    <trip id="279" depart="290.00" from="1117973877#1" to="-1117973867#1"/>
    <trip id="280" depart="291.00" from="-1118013820#0" to="-365247179#3"/>
    <trip id="281" depart="293.00" from="-1056592912#0" to="-1056592917"/>
    <trip id="282" depart="294.00" from="1056592915#5" to="1056592912#0"/>
    <trip id="283" depart="295.00" from="-1117973868" to="1117973879#1"/>
    <trip id="284" depart="295.00" from="-365247179#0" to="-1120090250#0"/>
    <trip id="285" depart="296.00" from="1056592917" to="-1056592912#0"/>
    <trip id="286" depart="297.00" from="1056592915#0" to="-1056592911#0"/>
    <trip id="287" depart="297.00" from="-1117969567#0" to="-1056592915#4"/>
    <trip id="288" depart="298.00" from="-1118011516" to="-1056592911#0"/>
    <trip id="289" depart="299.00" from="-1120090249#1" to="1117973868"/>
    <trip id="290" depart="301.00" from="1120090250#1" to="-1056592912#0"/>
    <trip id="291" depart="301.00" from="365247179#2" to="1120090249#1"/>
    <trip id="292" depart="303.00" from="-1056592915#0" to="-1056592911#1"/>
    <trip id="293" depart="304.00" from="1118009891#0" to="1117969566#0"/>
    <trip id="294" depart="305.00" from="1120090249#0" to="-1118009891#1"/>
    <trip id="295" depart="307.00" from="-1118009891#2" to="-365247179#1"/>
    <trip id="296" depart="307.00" from="-1056592915#5" to="1056592912#2"/>
    <trip id="297" depart="308.00" from="-543674391#1" to="1124813162"/>
    <trip id="298" depart="308.00" from="1117973867#1" to="1118011516"/>
    <trip id="299" depart="309.00" from="-1056592915#3" to="-1117969581"/>
    <trip id="300" depart="311.00" from="1117973879#1" to="1056592912#1"/>
    <trip id="301" depart="313.00" from="365247179#2" to="1056592915#2"/>
    <trip id="302" depart="315.00" from="-1056592912#1" to="1056592911#0"/>
    <trip id="303" depart="316.00" from="-1117973868" to="-1056592912#1"/>
    <trip id="304" depart="317.00" from="-365247179#2" to="-1056592912#1"/>
    <trip id="305" depart="318.00" from="1120090250#1" to="1120090248"/>
    <trip id="306" depart="319.00" from="1056592912#0" to="1118009891#2"/>
    <trip id="307" depart="320.00" from="1118009891#1" to="1117969567#1"/>
    <trip id="308" depart="321.00" from="-365247179#4" to="-1056592915#5"/>
    <trip id="309" depart="321.00" from="-1056592914" to="1124813162"/>
    <trip id="310" depart="322.00" from="1117973867#0" to="1056592912#2"/>
    <trip id="311" depart="322.00" from="-1117973867#1" to="1056592910"/>
    <trip id="312" depart="323.00" from="1056592911#0" to="-1056592917"/>
    <trip id="313" depart="323.00" from="-1118009891#0" to="-543674391#0"/>
    <trip id="314" depart="324.00" from="1056592915#0" to="1118009891#1"/>
    <trip id="315" depart="325.00" from="-1056592914" to="1117973867#1"/>
    <trip id="316" depart="325.00" from="1117973867#1" to="1117969567#1"/>
    <trip id="317" depart="327.00" from="1056592913" to="-1056592915#5"/>
    <trip id="318" depart="327.00" from="395971844#1" to="1117973868"/>
    <trip id="319" depart="328.00" from="1056592915#0" to="365247179#2"/>
    <trip id="320" depart="328.00" from="-1120090249#1" to="1118009891#2"/>
    <trip id="321" depart="332.00" from="-1120090248" to="-365247179#3"/>
    <trip id="322" depart="333.00" from="-1117969567#0" to="365247179#3"/>
    <trip id="323" depart="333.00" from="-1117969567#1" to="-1056592915#4"/>
    <trip id="324" depart="334.00" from="1120090249#0" to="-1056592915#1"/>
    <trip id="325" depart="336.00" from="-1118011516" to="1117973879#2"/>
    <trip id="326" depart="336.00" from="-1120090249#1" to="-1056592917"/>
    <trip id="327" depart="338.00" from="-365247179#1" to="-543674391#0"/>
    <trip id="328" depart="339.00" from="-365247179#2" to="-1120090250#0"/>
    <trip id="329" depart="340.00" from="1056592911#1" to="-1120090251#0"/>
    <trip id="330" depart="341.00" from="1118013820#0" to="-365247179#3"/>
    <trip id="331" depart="343.00" from="-1118009891#0" to="-365247179#4"/>
    <trip id="332" depart="345.00" from="-1117973867#1" to="1117969567#0"/>
    <trip id="333" depart="347.00" from="1120090249#0" to="1120090248"/>
    <trip id="334" depart="347.00" from="1117973879#0" to="-1120090249#0"/>
    <trip id="335" depart="348.00" from="-365247179#1" to="365247179#3"/>
    <trip id="336" depart="349.00" from="-365247179#2" to="-365247179#2"/>
    <trip id="337" depart="349.00" from="-1056592912#0" to="1056592912#2"/>
    <trip id="338" depart="350.00" from="991865589" to="-365247179#4"/>
    <trip id="339" depart="350.00" from="365247179#3" to="1118013820#1"/>
    <trip id="340" depart="352.00" from="-1118009891#0" to="1118013820#0"/>
    <trip id="341" depart="353.00" from="1117969581" to="1056592911#0"/>
    <trip id="342" depart="353.00" from="-1056592912#2" to="-1118013820#0"/>
    <trip id="343" depart="356.00" from="-1118009891#0" to="-1120090250#1"/>
    <trip id="344" depart="356.00" from="-365247179#0" to="1118009891#2"/>
    <trip id="345" depart="357.00" from="-1056592915#0" to="1124813162"/>
    <trip id="346" depart="358.00" from="1056592911#0" to="-1118009891#1"/>
    <trip id="347" depart="358.00" from="-365247179#0" to="1056592916"/>
    <trip id="348" depart="359.00" from="-1124813162" to="1117969581"/>
    <trip id="349" depart="359.00" from="395971844#1" to="-1056592912#2"/>
    <trip id="350" depart="362.00" from="-365247179#4" to="1117969566#1"/>
    <trip id="351" depart="363.00" from="-1056592911#0" to="1118009891#1"/>
    <trip id="352" depart="363.00" from="1117973877#0" to="1117969566#1"/>
    <trip id="353" depart="365.00" from="-1056592911#2" to="1056592915#0"/>
    <trip id="354" depart="366.00" from="1117973879#2" to="1056592911#1"/>
    <trip id="355" depart="368.00" from="1117973879#1" to="1056592911#1"/>
    <trip id="356" depart="368.00" from="-1056592911#2" to="-1117973867#0"/>
    <trip id="357" depart="369.00" from="365247179#3" to="1056592913"/>
    <trip id="358" depart="370.00" from="1117973877#1" to="-1117969581"/>
    <trip id="359" depart="371.00" from="1117973879#2" to="1120090249#1"/>
    <trip id="360" depart="371.00" from="-1056592915#1" to="-365247179#3"/>
    <trip id="361" depart="373.00" from="395971844#1" to="1056592912#1"/>
    <trip id="362" depart="374.00" from="365247179#2" to="1056592913"/>
    <trip id="363" depart="375.00" from="1056592915#0" to="1118011516"/>
    <trip id="364" depart="376.00" from="-1056592912#2" to="1117969567#1"/>
    <trip id="365" depart="377.00" from="1056592915#0" to="-991865589"/>
    <trip id="366" depart="378.00" from="-1056592911#2" to="1120090249#1"/>
    <trip id="367" depart="378.00" from="991865589" to="-1120090249#0"/>
    <trip id="368" depart="380.00" from="1056592915#3" to="-365247179#3"/>
    <trip id="369" depart="382.00" from="1056592915#1" to="1118009891#1"/>
    <trip id="370" depart="382.00" from="-1056592912#1" to="1118009891#0"/>
    <trip id="371" depart="383.00" from="-1120090249#1" to="1056592915#2"/>
    <trip id="372" depart="385.00" from="1117973879#0" to="1056592915#3"/>
    <trip id="373" depart="386.00" from="1056592915#4" to="-1118011516"/>
    <trip id="374" depart="386.00" from="1117973877#0" to="1056592912#1"/>
    <trip id="375" depart="387.00" from="1056592912#1" to="-1118013820#0"/>
    <trip id="376" depart="387.00" from="-365247179#2" to="543674391#1"/>
    <trip id="377" depart="388.00" from="365247179#1" to="1056592912#1"/>
    <trip id="378" depart="388.00" from="1120090250#0" to="1056592911#0"/>
    <trip id="379" depart="389.00" from="-1056592913" to="1117973867#1"/>
    <trip id="380" depart="390.00" from="-1118013820#0" to="-1056592912#2"/>
    <trip id="381" depart="395.00" from="-1117969566#1" to="-1056592915#4"/>
    <trip id="382" depart="396.00" from="1056592912#0" to="-365247179#3"/>
    <trip id="383" depart="398.00" from="-1118009891#2" to="543674391#1"/>
    <trip id="384" depart="400.00" from="395971844#1" to="1117969567#0"/>
    <trip id="385" depart="401.00" from="1117969566#0" to="-365247179#1"/>
    <trip id="386" depart="403.00" from="395971844#1" to="1056592910"/>
    <trip id="387" depart="404.00" from="-1056592915#1" to="-1056592917"/>
    <trip id="388" depart="404.00" from="-1118011515" to="1117973877#0"/>
    <trip id="389" depart="405.00" from="365247179#3" to="1120090251#1"/>
    <trip id="390" depart="406.00" from="1056592915#3" to="1056592915#1"/>
    <trip id="391" depart="406.00" from="-1118009891#2" to="1056592914"/>
    <trip id="392" depart="407.00" from="365247179#3" to="-1056592917"/>
    <trip id="393" depart="411.00" from="-1056592911#2" to="1117969567#0"/>
    <trip id="394" depart="413.00" from="1056592915#3" to="1056592912#1"/>
    <trip id="395" depart="414.00" from="395971844#0" to="1056592912#0"/>
    <trip id="396" depart="415.00" from="-1056592912#2" to="-1056592912#2"/>